Program Version,EnergyPlus, Version 9.5.0-de239b2e5f, YMD=2024.10.14 22:53,
   ************* Beginning Zone Sizing Calculations
   ** Warning ** ProcessScheduleInput: Schedule:Day:Interval="OFFICEMEDIUM HVACOPERATIONSCHD DEFAULT", Blank Schedule Type Limits Name input -- will not be validated.
   ** Warning ** ProcessScheduleInput: Schedule:Day:Interval="OFFICEMEDIUM HVACOPERATIONSCHD SMRDSN|WKDY DAY", Blank Schedule Type Limits Name input -- will not be validated.
   ** Warning ** ProcessScheduleInput: Schedule:Day:Interval="OFFICEMEDIUM HVACOPERATIONSCHD SUMMER DESIGN DAY", Blank Schedule Type Limits Name input -- will not be validated.
   ** Warning ** ProcessScheduleInput: Schedule:Day:Interval="OFFICEMEDIUM HVACOPERATIONSCHD WINTER DESIGN DAY", Blank Schedule Type Limits Name input -- will not be validated.
   ** Warning ** ProcessScheduleInput: Schedule:Day:Interval="OFFICEMEDIUM HVACOPERATIONSCHD WNTRDSN|SAT DAY", Blank Schedule Type Limits Name input -- will not be validated.
   ** Warning ** ProcessScheduleInput: Schedule:Day:Interval="SCHEDULE DAY 1", Blank Schedule Type Limits Name input -- will not be validated.
   ** Warning ** ProcessScheduleInput: Schedule:Day:Interval="SCHEDULE DAY 10", Blank Schedule Type Limits Name input -- will not be validated.
   ** Warning ** ProcessScheduleInput: Schedule:Day:Interval="SCHEDULE DAY 11", Blank Schedule Type Limits Name input -- will not be validated.
   ** Warning ** ProcessScheduleInput: Schedule:Day:Interval="SCHEDULE DAY 12", Blank Schedule Type Limits Name input -- will not be validated.
   ** Warning ** ProcessScheduleInput: Schedule:Day:Interval="SCHEDULE DAY 13", Blank Schedule Type Limits Name input -- will not be validated.
   ** Warning ** ProcessScheduleInput: Schedule:Day:Interval="SCHEDULE DAY 14", Blank Schedule Type Limits Name input -- will not be validated.
   ** Warning ** ProcessScheduleInput: Schedule:Day:Interval="SCHEDULE DAY 15", Blank Schedule Type Limits Name input -- will not be validated.
   ** Warning ** ProcessScheduleInput: Schedule:Day:Interval="SCHEDULE DAY 16", Blank Schedule Type Limits Name input -- will not be validated.
   ** Warning ** ProcessScheduleInput: Schedule:Day:Interval="SCHEDULE DAY 17", Blank Schedule Type Limits Name input -- will not be validated.
   ** Warning ** ProcessScheduleInput: Schedule:Day:Interval="SCHEDULE DAY 18", Blank Schedule Type Limits Name input -- will not be validated.
   ** Warning ** ProcessScheduleInput: Schedule:Day:Interval="SCHEDULE DAY 19", Blank Schedule Type Limits Name input -- will not be validated.
   ** Warning ** ProcessScheduleInput: Schedule:Day:Interval="SCHEDULE DAY 2", Blank Schedule Type Limits Name input -- will not be validated.
   ** Warning ** ProcessScheduleInput: Schedule:Day:Interval="SCHEDULE DAY 20", Blank Schedule Type Limits Name input -- will not be validated.
   ** Warning ** ProcessScheduleInput: Schedule:Day:Interval="SCHEDULE DAY 22", Blank Schedule Type Limits Name input -- will not be validated.
   ** Warning ** ProcessScheduleInput: Schedule:Day:Interval="SCHEDULE DAY 23", Blank Schedule Type Limits Name input -- will not be validated.
   ** Warning ** ProcessScheduleInput: Schedule:Day:Interval="SCHEDULE DAY 24", Blank Schedule Type Limits Name input -- will not be validated.
   ** Warning ** ProcessScheduleInput: Schedule:Day:Interval="SCHEDULE DAY 25", Blank Schedule Type Limits Name input -- will not be validated.
   ** Warning ** ProcessScheduleInput: Schedule:Day:Interval="SCHEDULE DAY 26", Blank Schedule Type Limits Name input -- will not be validated.
   ** Warning ** ProcessScheduleInput: Schedule:Day:Interval="SCHEDULE DAY 27", Blank Schedule Type Limits Name input -- will not be validated.
   ** Warning ** ProcessScheduleInput: Schedule:Day:Interval="SCHEDULE DAY 3", Blank Schedule Type Limits Name input -- will not be validated.
   ** Warning ** ProcessScheduleInput: Schedule:Day:Interval="SCHEDULE DAY 30", Blank Schedule Type Limits Name input -- will not be validated.
   ** Warning ** ProcessScheduleInput: Schedule:Day:Interval="SCHEDULE DAY 31", Blank Schedule Type Limits Name input -- will not be validated.
   ** Warning ** ProcessScheduleInput: Schedule:Day:Interval="SCHEDULE DAY 32", Blank Schedule Type Limits Name input -- will not be validated.
   ** Warning ** ProcessScheduleInput: Schedule:Day:Interval="SCHEDULE DAY 33", Blank Schedule Type Limits Name input -- will not be validated.
   ** Warning ** ProcessScheduleInput: Schedule:Day:Interval="SCHEDULE DAY 4", Blank Schedule Type Limits Name input -- will not be validated.
   ** Warning ** ProcessScheduleInput: Schedule:Day:Interval="SCHEDULE DAY 6", Blank Schedule Type Limits Name input -- will not be validated.
   ** Warning ** ProcessScheduleInput: Schedule:Day:Interval="SCHEDULE DAY 7", Blank Schedule Type Limits Name input -- will not be validated.
   ** Warning ** ProcessScheduleInput: Schedule:Day:Interval="SCHEDULE DAY 9", Blank Schedule Type Limits Name input -- will not be validated.
   ** Warning ** ProcessScheduleInput: Schedule:Day:Interval="ACTIVESTORAGE_MID_1 ZN VAV TERMINAL - MDP DEFAULT 1", Schedule Type Limits Name="FRACTION" not found -- will not be validated
   ** Warning ** ProcessScheduleInput: Schedule:Day:Interval="ACTIVESTORAGE_MID_2 ZN VAV TERMINAL - MDP DEFAULT 1", Schedule Type Limits Name="FRACTION" not found -- will not be validated
   ** Warning ** ProcessScheduleInput: Schedule:Day:Interval="ACTIVESTORAGE_MID_3 ZN VAV TERMINAL - MDP DEFAULT 1", Schedule Type Limits Name="FRACTION" not found -- will not be validated
   ** Warning ** ProcessScheduleInput: Schedule:Day:Interval="ACTIVESTORAGE_MID_4 ZN VAV TERMINAL - MDP DEFAULT 1", Schedule Type Limits Name="FRACTION" not found -- will not be validated
   ** Warning ** ProcessScheduleInput: Schedule:Day:Interval="CONFROOM_MID_1 ZN VAV TERMINAL - MDP DEFAULT 1", Schedule Type Limits Name="FRACTION" not found -- will not be validated
   ** Warning ** ProcessScheduleInput: Schedule:Day:Interval="CONFROOM_MID_2 ZN VAV TERMINAL - MDP DEFAULT 1", Schedule Type Limits Name="FRACTION" not found -- will not be validated
   ** Warning ** ProcessScheduleInput: Schedule:Day:Interval="CORRIDOR_MID_1 ZN VAV TERMINAL - MDP DEFAULT 1", Schedule Type Limits Name="FRACTION" not found -- will not be validated
   ** Warning ** ProcessScheduleInput: Schedule:Day:Interval="CORRIDOR_MID_2 ZN VAV TERMINAL - MDP DEFAULT 1", Schedule Type Limits Name="FRACTION" not found -- will not be validated
   ** Warning ** ProcessScheduleInput: Schedule:Day:Interval="DINING_MID ZN VAV TERMINAL - MDP DEFAULT 1", Schedule Type Limits Name="FRACTION" not found -- will not be validated
   ** Warning ** ProcessScheduleInput: Schedule:Day:Interval="ENCLOSEDOFFICE_MID_1 ZN VAV TERMINAL - MDP DEFAULT 1", Schedule Type Limits Name="FRACTION" not found -- will not be validated
   ** Warning ** ProcessScheduleInput: Schedule:Day:Interval="ENCLOSEDOFFICE_MID_2 ZN VAV TERMINAL - MDP DEFAULT 1", Schedule Type Limits Name="FRACTION" not found -- will not be validated
   ** Warning ** ProcessScheduleInput: Schedule:Day:Interval="ENCLOSEDOFFICE_MID_3 ZN VAV TERMINAL - MDP DEFAULT 1", Schedule Type Limits Name="FRACTION" not found -- will not be validated
   ** Warning ** ProcessScheduleInput: Schedule:Day:Interval="LOBBY_MID ZN VAV TERMINAL - MDP DEFAULT 1", Schedule Type Limits Name="FRACTION" not found -- will not be validated
   ** Warning ** ProcessScheduleInput: Schedule:Day:Interval="MECHANICAL_MID ZN VAV TERMINAL - MDP DEFAULT 1", Schedule Type Limits Name="FRACTION" not found -- will not be validated
   ** Warning ** ProcessScheduleInput: Schedule:Day:Interval="OPENOFFICE_MID_1 ZN VAV TERMINAL - MDP DEFAULT 1", Schedule Type Limits Name="FRACTION" not found -- will not be validated
   ** Warning ** ProcessScheduleInput: Schedule:Day:Interval="OPENOFFICE_MID_2 ZN VAV TERMINAL - MDP DEFAULT 1", Schedule Type Limits Name="FRACTION" not found -- will not be validated
   ** Warning ** ProcessScheduleInput: Schedule:Day:Interval="OPENOFFICE_MID_3 ZN VAV TERMINAL - MDP DEFAULT 1", Schedule Type Limits Name="FRACTION" not found -- will not be validated
   ** Warning ** ProcessScheduleInput: Schedule:Day:Interval="OPENOFFICE_MID_4 ZN VAV TERMINAL - MDP DEFAULT 1", Schedule Type Limits Name="FRACTION" not found -- will not be validated
   ** Warning ** ProcessScheduleInput: Schedule:Day:Interval="RESTROOM_MID ZN VAV TERMINAL - MDP DEFAULT 1", Schedule Type Limits Name="FRACTION" not found -- will not be validated
   ** Warning ** ProcessScheduleInput: Schedule:Day:Interval="STAIR_MID_1 ZN VAV TERMINAL - MDP DEFAULT 1", Schedule Type Limits Name="FRACTION" not found -- will not be validated
   ** Warning ** ProcessScheduleInput: Schedule:Day:Interval="STAIR_MID_2 ZN VAV TERMINAL - MDP DEFAULT 1", Schedule Type Limits Name="FRACTION" not found -- will not be validated
   ** Warning ** ProcessScheduleInput: Schedule:Year="OFFICEMEDIUM HVACOPERATIONSCHD", Blank Schedule Type Limits Name input -- will not be validated.
   ** Warning ** ProcessScheduleInput: Schedule:Year="ACTIVESTORAGE_MID_1 ZN VAV TERMINAL - MDP - ADJUSTED", Schedule Type Limits Name="FRACTION" not found -- will not be validated
   ** Warning ** ProcessScheduleInput: Schedule:Year="ACTIVESTORAGE_MID_2 ZN VAV TERMINAL - MDP - ADJUSTED", Schedule Type Limits Name="FRACTION" not found -- will not be validated
   ** Warning ** ProcessScheduleInput: Schedule:Year="ACTIVESTORAGE_MID_3 ZN VAV TERMINAL - MDP - ADJUSTED", Schedule Type Limits Name="FRACTION" not found -- will not be validated
   ** Warning ** ProcessScheduleInput: Schedule:Year="ACTIVESTORAGE_MID_4 ZN VAV TERMINAL - MDP - ADJUSTED", Schedule Type Limits Name="FRACTION" not found -- will not be validated
   ** Warning ** ProcessScheduleInput: Schedule:Year="CONFROOM_MID_1 ZN VAV TERMINAL - MDP - ADJUSTED", Schedule Type Limits Name="FRACTION" not found -- will not be validated
   ** Warning ** ProcessScheduleInput: Schedule:Year="CONFROOM_MID_2 ZN VAV TERMINAL - MDP - ADJUSTED", Schedule Type Limits Name="FRACTION" not found -- will not be validated
   ** Warning ** ProcessScheduleInput: Schedule:Year="CORRIDOR_MID_1 ZN VAV TERMINAL - MDP - ADJUSTED", Schedule Type Limits Name="FRACTION" not found -- will not be validated
   ** Warning ** ProcessScheduleInput: Schedule:Year="CORRIDOR_MID_2 ZN VAV TERMINAL - MDP - ADJUSTED", Schedule Type Limits Name="FRACTION" not found -- will not be validated
   ** Warning ** ProcessScheduleInput: Schedule:Year="DINING_MID ZN VAV TERMINAL - MDP - ADJUSTED", Schedule Type Limits Name="FRACTION" not found -- will not be validated
   ** Warning ** ProcessScheduleInput: Schedule:Year="ENCLOSEDOFFICE_MID_1 ZN VAV TERMINAL - MDP - ADJUSTED", Schedule Type Limits Name="FRACTION" not found -- will not be validated
   ** Warning ** ProcessScheduleInput: Schedule:Year="ENCLOSEDOFFICE_MID_2 ZN VAV TERMINAL - MDP - ADJUSTED", Schedule Type Limits Name="FRACTION" not found -- will not be validated
   ** Warning ** ProcessScheduleInput: Schedule:Year="ENCLOSEDOFFICE_MID_3 ZN VAV TERMINAL - MDP - ADJUSTED", Schedule Type Limits Name="FRACTION" not found -- will not be validated
   ** Warning ** ProcessScheduleInput: Schedule:Year="LOBBY_MID ZN VAV TERMINAL - MDP - ADJUSTED", Schedule Type Limits Name="FRACTION" not found -- will not be validated
   ** Warning ** ProcessScheduleInput: Schedule:Year="MECHANICAL_MID ZN VAV TERMINAL - MDP - ADJUSTED", Schedule Type Limits Name="FRACTION" not found -- will not be validated
   ** Warning ** ProcessScheduleInput: Schedule:Year="OPENOFFICE_MID_1 ZN VAV TERMINAL - MDP - ADJUSTED", Schedule Type Limits Name="FRACTION" not found -- will not be validated
   ** Warning ** ProcessScheduleInput: Schedule:Year="OPENOFFICE_MID_2 ZN VAV TERMINAL - MDP - ADJUSTED", Schedule Type Limits Name="FRACTION" not found -- will not be validated
   ** Warning ** ProcessScheduleInput: Schedule:Year="OPENOFFICE_MID_3 ZN VAV TERMINAL - MDP - ADJUSTED", Schedule Type Limits Name="FRACTION" not found -- will not be validated
   ** Warning ** ProcessScheduleInput: Schedule:Year="OPENOFFICE_MID_4 ZN VAV TERMINAL - MDP - ADJUSTED", Schedule Type Limits Name="FRACTION" not found -- will not be validated
   ** Warning ** ProcessScheduleInput: Schedule:Year="RESTROOM_MID ZN VAV TERMINAL - MDP - ADJUSTED", Schedule Type Limits Name="FRACTION" not found -- will not be validated
   ** Warning ** ProcessScheduleInput: Schedule:Year="STAIR_MID_1 ZN VAV TERMINAL - MDP - ADJUSTED", Schedule Type Limits Name="FRACTION" not found -- will not be validated
   ** Warning ** ProcessScheduleInput: Schedule:Year="STAIR_MID_2 ZN VAV TERMINAL - MDP - ADJUSTED", Schedule Type Limits Name="FRACTION" not found -- will not be validated
   ** Warning ** ProcessScheduleInput: Schedule:Constant="ALWAYS OFF DISCRETE", Blank Schedule Type Limits Name input -- will not be validated.
   ** Warning ** ProcessScheduleInput: Schedule:Constant="ALWAYS ON CONTINUOUS", Blank Schedule Type Limits Name input -- will not be validated.
   ** Warning ** BuildingSurface:Detailed="SURFACE 275", Sun Exposure="SUNEXPOSED".
   **   ~~~   ** ..This surface is not exposed to External Environment.  Sun exposure has no effect.
   ** Warning ** BuildingSurface:Detailed="SURFACE 267", Sun Exposure="SUNEXPOSED".
   **   ~~~   ** ..This surface is not exposed to External Environment.  Sun exposure has no effect.
   ** Warning ** No floor exists in Zone="MIDFLOOR_PLENUM ZN", zone floor area is zero. All values for this zone that are entered per floor area will be zero.
   ** Warning ** CalculateZoneVolume: 1 zone is not fully enclosed. For more details use:  Output:Diagnostics,DisplayExtrawarnings; 
   ** Warning ** CheckUsedConstructions: There are 14 nominally unused constructions in input.
   **   ~~~   ** For explicit details on each unused construction, use Output:Diagnostics,DisplayExtraWarnings;
   ** Warning ** GetInternalHeatGains: People="MEDIUMOFFICE - CONFERENCE PEOPLE" has comfort related schedules but no thermal comfort model selected.
   **   ~~~   ** If schedules are specified for air velocity, clothing insulation, and/or work efficiency but no thermal comfort
   **   ~~~   ** thermal comfort model is selected, the schedules will be listed as unused schedules in the .err file.
   **   ~~~   ** To avoid these errors, select a valid thermal comfort model or eliminate these schedules in the PEOPLE input.
   ** Warning ** GetInternalHeatGains: People="MEDIUMOFFICE - CONFERENCE PEOPLE" has comfort related schedules but no thermal comfort model selected.
   **   ~~~   ** If schedules are specified for air velocity, clothing insulation, and/or work efficiency but no thermal comfort
   **   ~~~   ** thermal comfort model is selected, the schedules will be listed as unused schedules in the .err file.
   **   ~~~   ** To avoid these errors, select a valid thermal comfort model or eliminate these schedules in the PEOPLE input.
   ** Warning ** GetInternalHeatGains: People="MEDIUMOFFICE - DINING PEOPLE" has comfort related schedules but no thermal comfort model selected.
   **   ~~~   ** If schedules are specified for air velocity, clothing insulation, and/or work efficiency but no thermal comfort
   **   ~~~   ** thermal comfort model is selected, the schedules will be listed as unused schedules in the .err file.
   **   ~~~   ** To avoid these errors, select a valid thermal comfort model or eliminate these schedules in the PEOPLE input.
   ** Warning ** GetInternalHeatGains: People="MEDIUMOFFICE - CLOSEDOFFICE PEOPLE" has comfort related schedules but no thermal comfort model selected.
   **   ~~~   ** If schedules are specified for air velocity, clothing insulation, and/or work efficiency but no thermal comfort
   **   ~~~   ** thermal comfort model is selected, the schedules will be listed as unused schedules in the .err file.
   **   ~~~   ** To avoid these errors, select a valid thermal comfort model or eliminate these schedules in the PEOPLE input.
   ** Warning ** GetInternalHeatGains: People="MEDIUMOFFICE - CLOSEDOFFICE PEOPLE" has comfort related schedules but no thermal comfort model selected.
   **   ~~~   ** If schedules are specified for air velocity, clothing insulation, and/or work efficiency but no thermal comfort
   **   ~~~   ** thermal comfort model is selected, the schedules will be listed as unused schedules in the .err file.
   **   ~~~   ** To avoid these errors, select a valid thermal comfort model or eliminate these schedules in the PEOPLE input.
   ** Warning ** GetInternalHeatGains: People="MEDIUMOFFICE - CLOSEDOFFICE PEOPLE" has comfort related schedules but no thermal comfort model selected.
   **   ~~~   ** If schedules are specified for air velocity, clothing insulation, and/or work efficiency but no thermal comfort
   **   ~~~   ** thermal comfort model is selected, the schedules will be listed as unused schedules in the .err file.
   **   ~~~   ** To avoid these errors, select a valid thermal comfort model or eliminate these schedules in the PEOPLE input.
   ** Warning ** GetInternalHeatGains: People="MEDIUMOFFICE - LOBBY PEOPLE" has comfort related schedules but no thermal comfort model selected.
   **   ~~~   ** If schedules are specified for air velocity, clothing insulation, and/or work efficiency but no thermal comfort
   **   ~~~   ** thermal comfort model is selected, the schedules will be listed as unused schedules in the .err file.
   **   ~~~   ** To avoid these errors, select a valid thermal comfort model or eliminate these schedules in the PEOPLE input.
   ** Warning ** GetInternalHeatGains: People="MEDIUMOFFICE - OPENOFFICE PEOPLE" has comfort related schedules but no thermal comfort model selected.
   **   ~~~   ** If schedules are specified for air velocity, clothing insulation, and/or work efficiency but no thermal comfort
   **   ~~~   ** thermal comfort model is selected, the schedules will be listed as unused schedules in the .err file.
   **   ~~~   ** To avoid these errors, select a valid thermal comfort model or eliminate these schedules in the PEOPLE input.
   ** Warning ** GetInternalHeatGains: People="MEDIUMOFFICE - OPENOFFICE PEOPLE" has comfort related schedules but no thermal comfort model selected.
   **   ~~~   ** If schedules are specified for air velocity, clothing insulation, and/or work efficiency but no thermal comfort
   **   ~~~   ** thermal comfort model is selected, the schedules will be listed as unused schedules in the .err file.
   **   ~~~   ** To avoid these errors, select a valid thermal comfort model or eliminate these schedules in the PEOPLE input.
   ** Warning ** GetInternalHeatGains: People="MEDIUMOFFICE - OPENOFFICE PEOPLE" has comfort related schedules but no thermal comfort model selected.
   **   ~~~   ** If schedules are specified for air velocity, clothing insulation, and/or work efficiency but no thermal comfort
   **   ~~~   ** thermal comfort model is selected, the schedules will be listed as unused schedules in the .err file.
   **   ~~~   ** To avoid these errors, select a valid thermal comfort model or eliminate these schedules in the PEOPLE input.
   ** Warning ** GetInternalHeatGains: People="MEDIUMOFFICE - OPENOFFICE PEOPLE" has comfort related schedules but no thermal comfort model selected.
   **   ~~~   ** If schedules are specified for air velocity, clothing insulation, and/or work efficiency but no thermal comfort
   **   ~~~   ** thermal comfort model is selected, the schedules will be listed as unused schedules in the .err file.
   **   ~~~   ** To avoid these errors, select a valid thermal comfort model or eliminate these schedules in the PEOPLE input.
   ************* Beginning System Sizing Calculations
   ** Warning ** ManageSizing: For a plant sizing run, there must be at least 1 Sizing:Plant object input. SimulationControl Plant Sizing option ignored.
   ** Warning ** Controller:MechanicalVentilation = "21 ZONE PVAV VENTILATION CONTROLLER", Zone="ACTIVESTORAGE_MID_1 ZN".
   **   ~~~   ** No "PEOPLE" object has been specified in the idf for this zone, but the ventilation rate is > 0 in this Controller:MechanicalVentilation Object.
   **   ~~~   ** Check ventilation rate in Controller:MechanicalVentilation object.  Simulation will continue.
   ** Warning ** Controller:MechanicalVentilation = "21 ZONE PVAV VENTILATION CONTROLLER", Zone="ACTIVESTORAGE_MID_2 ZN".
   **   ~~~   ** No "PEOPLE" object has been specified in the idf for this zone, but the ventilation rate is > 0 in this Controller:MechanicalVentilation Object.
   **   ~~~   ** Check ventilation rate in Controller:MechanicalVentilation object.  Simulation will continue.
   ** Warning ** Controller:MechanicalVentilation = "21 ZONE PVAV VENTILATION CONTROLLER", Zone="ACTIVESTORAGE_MID_3 ZN".
   **   ~~~   ** No "PEOPLE" object has been specified in the idf for this zone, but the ventilation rate is > 0 in this Controller:MechanicalVentilation Object.
   **   ~~~   ** Check ventilation rate in Controller:MechanicalVentilation object.  Simulation will continue.
   ** Warning ** Controller:MechanicalVentilation = "21 ZONE PVAV VENTILATION CONTROLLER", Zone="ACTIVESTORAGE_MID_4 ZN".
   **   ~~~   ** No "PEOPLE" object has been specified in the idf for this zone, but the ventilation rate is > 0 in this Controller:MechanicalVentilation Object.
   **   ~~~   ** Check ventilation rate in Controller:MechanicalVentilation object.  Simulation will continue.
   ************* Testing Individual Branch Integrity
   ************* All Branches passed integrity testing
   ************* Testing Individual Supply Air Path Integrity
   ************* All Supply Air Paths passed integrity testing
   ************* Testing Individual Return Air Path Integrity
   ************* All Return Air Paths passed integrity testing
   ************* No node connection errors were found.
   ************* Beginning Simulation
   ** Warning ** SimHVAC: Maximum iterations (20) exceeded for all HVAC loops, at RUN PERIOD 1, 01/01 13:40 - 13:50
   **   ~~~   ** The solution for one or more of the Air Loop HVAC systems did not appear to converge
   **   ~~~   ** ...use Output:Diagnostics,DisplayExtraWarnings; to show more details on each max iteration exceeded.
   ** Warning ** SimHVAC: Maximum iterations (20) exceeded for all HVAC loops, at RUN PERIOD 1, 01/04 06:17 - 06:18
   **   ~~~   ** The solution for one or more of the Air Loop HVAC systems did not appear to converge
   ** Warning ** SimHVAC: Maximum iterations (20) exceeded for all HVAC loops, at RUN PERIOD 1, 01/04 06:23 - 06:25
   **   ~~~   ** The solution for one or more of the Air Loop HVAC systems did not appear to converge
   ** Warning ** SimHVAC: Maximum iterations (20) exceeded for all HVAC loops, at RUN PERIOD 1, 01/05 06:08 - 06:10
   **   ~~~   ** The solution for one or more of the Air Loop HVAC systems did not appear to converge
   ** Warning ** SimHVAC: Maximum iterations (20) exceeded for all HVAC loops, at RUN PERIOD 1, 01/06 06:27 - 06:30
   **   ~~~   ** The solution for one or more of the Air Loop HVAC systems did not appear to converge
   ** Warning ** SimHVAC: Maximum iterations (20) exceeded for all HVAC loops, at RUN PERIOD 1, 01/06 13:40 - 13:50
   **   ~~~   ** The solution for one or more of the Air Loop HVAC systems did not appear to converge
   ** Warning ** SimHVAC: Maximum iterations (20) exceeded for all HVAC loops, at RUN PERIOD 1, 01/07 06:35 - 06:38
   **   ~~~   ** The solution for one or more of the Air Loop HVAC systems did not appear to converge
   ** Warning ** SimHVAC: Maximum iterations (20) exceeded for all HVAC loops, at RUN PERIOD 1, 01/13 06:08 - 06:10
   **   ~~~   ** The solution for one or more of the Air Loop HVAC systems did not appear to converge
   ** Warning ** SimHVAC: Maximum iterations (20) exceeded for all HVAC loops, at RUN PERIOD 1, 01/17 06:15 - 06:17
   **   ~~~   ** The solution for one or more of the Air Loop HVAC systems did not appear to converge
   ** Warning ** SimHVAC: Maximum iterations (20) exceeded for all HVAC loops, at RUN PERIOD 1, 01/25 06:08 - 06:10
   **   ~~~   ** The solution for one or more of the Air Loop HVAC systems did not appear to converge
   ** Warning ** SimHVAC: Maximum iterations (20) exceeded for all HVAC loops, at RUN PERIOD 1, 01/26 06:03 - 06:05
   **   ~~~   ** The solution for one or more of the Air Loop HVAC systems did not appear to converge
   ** Warning ** SimHVAC: Maximum iterations (20) exceeded for all HVAC loops, at RUN PERIOD 1, 01/27 17:20 - 17:30
   **   ~~~   ** The solution for one or more of the Air Loop HVAC systems did not appear to converge
   ** Warning ** SimHVAC: Maximum iterations (20) exceeded for all HVAC loops, at RUN PERIOD 1, 01/27 17:20 - 17:25
   **   ~~~   ** The solution for one or more of the Air Loop HVAC systems did not appear to converge
   ** Warning ** SimHVAC: Maximum iterations (20) exceeded for all HVAC loops, at RUN PERIOD 1, 01/27 17:25 - 17:30
   **   ~~~   ** The solution for one or more of the Air Loop HVAC systems did not appear to converge
   ************* Simulation Error Summary *************
   ************* There are 65 unused schedules in input.
   ************* There are 21 unused week schedules in input.
   ************* There are 73 unused day schedules in input.
   ************* Use Output:Diagnostics,DisplayUnusedSchedules; to see them.
   *************
   ************* ===== Recurring Error Summary =====
   ************* The following recurring error messages occurred.
   *************
   *************  ** Warning ** SimHVAC: Exceeding Maximum iterations for all HVAC loops, during RUN PERIOD 1 continues
   *************  **   ~~~   **   This error occurred 59 total times;
   *************  **   ~~~   **   during Warmup 0 times;
   *************  **   ~~~   **   during Sizing 0 times.
   *************
   *************
   ************* ===== Final Error Summary =====
   ************* The following error categories occurred.  Consider correcting or noting.
   ************* Nominally Unused Constructions
   ************* ..The nominally unused constructions warning is provided to alert you to potential conditions that can cause
   ************* ..extra time during simulation. Each construction is calculated by the algorithm indicated in the HeatBalanceAlgorithm
   ************* ..object. You may remove the constructions indicated (when you use the DisplayExtraWarnings option).
   *************
   ************* EnergyPlus Warmup Error Summary. During Warmup: 0 Warning; 0 Severe Errors.
   ************* EnergyPlus Sizing Error Summary. During Sizing: 95 Warning; 0 Severe Errors.
   ************* EnergyPlus Completed Successfully-- 172 Warning; 0 Severe Errors; Elapsed Time=00hr 00min 46.30sec
